ACH
     RDKit          3D

 26 25  0  0  0  0  0  0  0  0999 V2000
   -0.7893   -0.5435    4.1009 N   0  0  0  0  0  0  0  0  0  0  0  0
   -0.3204    0.2480    2.9506 C   0  0  0  0  0  0  0  0  0  0  0  0
    0.6649    1.3369    3.3663 C   0  0  0  0  0  0  0  0  0  0  0  0
    1.9527    1.0491    2.8312 O   0  0  0  0  0  0  0  0  0  0  0  0
    2.9598    2.0920    2.7121 C   0  0  0  0  0  0  0  0  0  0  0  0
    3.9906    1.8242    2.1183 O   0  0  0  0  0  0  0  0  0  0  0  0
    2.6815    3.4730    3.2262 C   0  0  0  0  0  0  0  0  0  0  0  0
   -1.3241    0.3062    5.1759 C   0  0  0  0  0  0  0  0  0  0  0  0
   -1.8450   -1.4552    3.6624 C   0  0  0  0  0  0  0  0  0  0  0  0
    0.3145   -1.3613    4.6079 C   0  0  0  0  0  0  0  0  0  0  0  0
    0.1755   -0.4248    2.2355 H   0  0  0  0  0  0  0  0  0  0  0  0
   -1.1950    0.7377    2.4973 H   0  0  0  0  0  0  0  0  0  0  0  0
    0.3188    2.3085    2.9838 H   0  0  0  0  0  0  0  0  0  0  0  0
    0.7263    1.3726    4.4640 H   0  0  0  0  0  0  0  0  0  0  0  0
    2.7349    4.1914    2.3949 H   0  0  0  0  0  0  0  0  0  0  0  0
    1.6765    3.5026    3.6723 H   0  0  0  0  0  0  0  0  0  0  0  0
    3.4290    3.7380    3.9885 H   0  0  0  0  0  0  0  0  0  0  0  0
   -1.8236    1.1823    4.7367 H   0  0  0  0  0  0  0  0  0  0  0  0
   -2.0486   -0.2686    5.7715 H   0  0  0  0  0  0  0  0  0  0  0  0
   -0.5001    0.6403    5.8235 H   0  0  0  0  0  0  0  0  0  0  0  0
   -1.6320   -1.7979    2.6391 H   0  0  0  0  0  0  0  0  0  0  0  0
   -1.8850   -2.3220    4.3385 H   0  0  0  0  0  0  0  0  0  0  0  0
   -2.8123   -0.9317    3.6799 H   0  0  0  0  0  0  0  0  0  0  0  0
    0.8042   -1.8771    3.7688 H   0  0  0  0  0  0  0  0  0  0  0  0
    1.0447   -0.7160    5.1182 H   0  0  0  0  0  0  0  0  0  0  0  0
   -0.0764   -2.1053    5.3177 H   0  0  0  0  0  0  0  0  0  0  0  0
  2  1  1  0
  3  2  1  0
  4  3  1  0
  5  4  1  0
  6  5  2  0
  7  5  1  0
  8  1  1  0
  9  1  1  0
 10  1  1  0
  2 11  1  0
  2 12  1  0
  3 13  1  0
  3 14  1  0
  7 15  1  0
  7 16  1  0
  7 17  1  0
  8 18  1  0
  8 19  1  0
  8 20  1  0
  9 21  1  0
  9 22  1  0
  9 23  1  0
 10 24  1  0
 10 25  1  0
 10 26  1  0
M  CHG  1   1   1
M  END
$$$$
