PACER0027
     RDKit          3D

 61 67  0  0  0  0  0  0  0  0999 V2000
   -3.9267   -0.8415   12.5778 C   0  0  0  0  0  0  0  0  0  0  0  0
   -3.9475   -0.3451   13.9991 C   0  0  0  0  0  0  0  0  0  0  0  0
   -3.1951    0.7073   14.4218 C   0  0  0  0  0  0  0  0  0  0  0  0
   -2.0655    1.5360   13.4067 Cl  0  0  0  0  0  0  0  0  0  0  0  0
   -3.3146    1.1961   15.7564 C   0  0  0  0  0  0  0  0  0  0  0  0
   -2.7176    2.1652   16.4239 N   0  0  0  0  0  0  0  0  0  0  0  0
   -3.2542    2.2088   17.6908 N   0  0  0  0  0  0  0  0  0  0  0  0
   -4.1648    1.2679   17.7711 C   0  0  0  0  0  0  0  0  0  0  0  0
   -4.2385    0.5907   16.5867 N   0  0  0  0  0  0  0  0  0  0  0  0
   -5.0007   -0.4900   16.1770 C   0  0  0  0  0  0  0  0  0  0  0  0
   -6.0950   -1.2502   17.1796 S   0  0  0  0  0  0  0  0  0  0  0  0
   -6.5277   -2.3732   15.9311 C   0  0  0  0  0  0  0  0  0  0  0  0
   -7.5196   -3.3039   16.1432 N   0  0  0  0  0  0  0  0  0  0  0  0
   -7.5027   -4.6285   15.5572 C   0  0  0  0  0  0  0  0  0  0  0  0
   -8.5052   -5.0317   16.6572 C   0  0  0  0  0  0  0  0  0  0  0  0
   -9.9850   -4.8840   16.3591 N   0  0  0  0  0  0  0  0  0  0  0  0
  -10.6495   -6.0691   15.7697 C   0  0  0  0  0  0  0  0  0  0  0  0
  -11.5420   -5.1112   14.9118 C   0  0  0  0  0  0  0  0  0  0  0  0
  -11.7299   -5.5177   13.4718 N   0  0  0  0  0  0  0  0  0  0  0  0
  -11.7517   -4.2894   12.5816 C   0  0  0  0  0  0  0  0  0  0  0  0
  -10.5038   -4.2751   11.6705 C   0  0  0  0  0  0  0  0  0  0  0  0
  -11.0358   -3.5621   10.4725 C   0  0  0  0  0  0  0  0  0  0  0  0
  -10.3121   -2.9906    9.4397 C   0  0  0  0  0  0  0  0  0  0  0  0
  -11.0159   -2.4002    8.3885 C   0  0  0  0  0  0  0  0  0  0  0  0
  -12.4187   -2.3989    8.3779 C   0  0  0  0  0  0  0  0  0  0  0  0
  -13.1411   -2.9874    9.4165 C   0  0  0  0  0  0  0  0  0  0  0  0
  -12.4355   -3.5603   10.4614 C   0  0  0  0  0  0  0  0  0  0  0  0
  -12.9861   -4.2703   11.6523 C   0  0  0  0  0  0  0  0  0  0  0  0
  -10.4255   -4.0598   15.2065 C   0  0  0  0  0  0  0  0  0  0  0  0
   -7.8840   -3.8440   17.4337 C   0  0  0  0  0  0  0  0  0  0  0  0
   -5.7128   -2.1822   14.8068 C   0  0  0  0  0  0  0  0  0  0  0  0
   -5.7397   -3.0252   13.7430 N   0  0  0  0  0  0  0  0  0  0  0  0
   -4.8742   -1.0133   14.9121 C   0  0  0  0  0  0  0  0  0  0  0  0
   -3.5961   -0.0313   11.9113 H   0  0  0  0  0  0  0  0  0  0  0  0
   -3.2316   -1.6902   12.4960 H   0  0  0  0  0  0  0  0  0  0  0  0
   -4.9370   -1.1657   12.2878 H   0  0  0  0  0  0  0  0  0  0  0  0
   -4.7778    1.0558   18.6595 H   0  0  0  0  0  0  0  0  0  0  0  0
   -7.8956   -4.6846   14.5313 H   0  0  0  0  0  0  0  0  0  0  0  0
   -6.5670   -5.1813   15.3871 H   0  0  0  0  0  0  0  0  0  0  0  0
   -8.5744   -6.0636   17.0318 H   0  0  0  0  0  0  0  0  0  0  0  0
  -10.4465   -4.5813   17.2374 H   0  0  0  0  0  0  0  0  0  0  0  0
   -9.9826   -6.7153   15.1801 H   0  0  0  0  0  0  0  0  0  0  0  0
  -11.1024   -6.8396   16.4109 H   0  0  0  0  0  0  0  0  0  0  0  0
  -12.6067   -4.9202   15.1119 H   0  0  0  0  0  0  0  0  0  0  0  0
  -12.6214   -6.0242   13.3244 H   0  0  0  0  0  0  0  0  0  0  0  0
  -10.9943   -6.1564   13.1275 H   0  0  0  0  0  0  0  0  0  0  0  0
  -11.7774   -3.4168   13.2508 H   0  0  0  0  0  0  0  0  0  0  0  0
   -9.6720   -3.7234   12.1329 H   0  0  0  0  0  0  0  0  0  0  0  0
  -10.0853   -5.2699   11.4580 H   0  0  0  0  0  0  0  0  0  0  0  0
   -9.2121   -3.0016    9.4471 H   0  0  0  0  0  0  0  0  0  0  0  0
  -10.4649   -1.9311    7.5600 H   0  0  0  0  0  0  0  0  0  0  0  0
  -12.9555   -1.9285    7.5410 H   0  0  0  0  0  0  0  0  0  0  0  0
  -14.2410   -2.9961    9.4057 H   0  0  0  0  0  0  0  0  0  0  0  0
  -13.8222   -3.7152   12.1027 H   0  0  0  0  0  0  0  0  0  0  0  0
  -13.4046   -5.2639   11.4341 H   0  0  0  0  0  0  0  0  0  0  0  0
   -9.6753   -3.9607   14.4082 H   0  0  0  0  0  0  0  0  0  0  0  0
  -10.6722   -2.9956   15.3351 H   0  0  0  0  0  0  0  0  0  0  0  0
   -8.6034   -3.2367   18.0027 H   0  0  0  0  0  0  0  0  0  0  0  0
   -7.1476   -3.9897   18.2378 H   0  0  0  0  0  0  0  0  0  0  0  0
   -5.3612   -2.7249   12.8534 H   0  0  0  0  0  0  0  0  0  0  0  0
   -6.5534   -3.6118   13.5763 H   0  0  0  0  0  0  0  0  0  0  0  0
  1  2  1  0
  2  3  2  0
  3  4  1  0
  3  5  1  0
  5  6  2  0
  6  7  1  0
  7  8  2  0
  8  9  1  0
  9 10  1  0
 10 11  1  0
 11 12  1  0
 12 13  1  0
 13 14  1  0
 14 15  1  0
 15 16  1  0
 16 17  1  0
 17 18  1  0
 18 19  1  0
 19 20  1  0
 20 21  1  0
 21 22  1  0
 22 23  2  0
 23 24  1  0
 24 25  2  0
 25 26  1  0
 26 27  2  0
 27 28  1  0
 18 29  1  0
 15 30  1  0
 12 31  2  0
 31 32  1  0
 31 33  1  0
 33  2  1  0
  9  5  1  0
 33 10  2  0
 30 13  1  0
 29 16  1  0
 28 20  1  0
 27 22  1  0
  1 34  1  0
  1 35  1  0
  1 36  1  0
  8 37  1  0
 14 38  1  0
 14 39  1  0
 15 40  1  0
 16 41  1  0
 17 42  1  0
 17 43  1  0
 18 44  1  0
 19 45  1  0
 19 46  1  0
 20 47  1  0
 21 48  1  0
 21 49  1  0
 23 50  1  0
 24 51  1  0
 25 52  1  0
 26 53  1  0
 28 54  1  0
 28 55  1  0
 29 56  1  0
 29 57  1  0
 30 58  1  0
 30 59  1  0
 32 60  1  0
 32 61  1  0
M  CHG  2  16   1  19   1
M  END
$$$$
