PACER0073
     RDKit          3D

 47 51  0  0  0  0  0  0  0  0999 V2000
   -1.4461    1.7724   13.3299 C   0  0  0  0  0  0  0  0  0  0  0  0
   -2.0656    2.1282   14.6547 C   0  0  0  0  0  0  0  0  0  0  0  0
   -1.5410    3.0640   15.4867 C   0  0  0  0  0  0  0  0  0  0  0  0
   -0.0558    3.8943   15.1636 Cl  0  0  0  0  0  0  0  0  0  0  0  0
   -2.2107    3.4257   16.6934 C   0  0  0  0  0  0  0  0  0  0  0  0
   -1.9054    4.2799   17.6473 N   0  0  0  0  0  0  0  0  0  0  0  0
   -2.9134    4.2624   18.5724 N   0  0  0  0  0  0  0  0  0  0  0  0
   -3.8291    3.3983   18.1786 C   0  0  0  0  0  0  0  0  0  0  0  0
   -5.0754    3.1139   18.9253 C   0  0  0  0  0  0  0  0  0  0  0  0
   -3.4285    2.8218   16.9849 N   0  0  0  0  0  0  0  0  0  0  0  0
   -3.9678    1.8543   16.1412 C   0  0  0  0  0  0  0  0  0  0  0  0
   -5.4228    1.0848   16.4293 S   0  0  0  0  0  0  0  0  0  0  0  0
   -5.2661    0.1252   15.0086 C   0  0  0  0  0  0  0  0  0  0  0  0
   -6.2753   -0.7493   14.7134 N   0  0  0  0  0  0  0  0  0  0  0  0
   -6.2230   -2.1516   15.0682 C   0  0  0  0  0  0  0  0  0  0  0  0
   -7.2431   -2.3939   13.9407 C   0  0  0  0  0  0  0  0  0  0  0  0
   -8.6705   -2.3113   14.3661 N   0  0  0  0  0  0  0  0  0  0  0  0
   -9.4263   -3.4554   14.5212 C   0  0  0  0  0  0  0  0  0  0  0  0
   -8.9683   -4.5837   14.3965 O   0  0  0  0  0  0  0  0  0  0  0  0
  -10.8687   -3.2715   14.8183 C   0  0  0  0  0  0  0  0  0  0  0  0
  -11.2773   -2.0592   15.3705 C   0  0  0  0  0  0  0  0  0  0  0  0
  -12.6211   -1.8899   15.6351 C   0  0  0  0  0  0  0  0  0  0  0  0
  -13.0230   -0.7313   16.1759 F   0  0  0  0  0  0  0  0  0  0  0  0
  -13.5631   -2.8185   15.3881 N   0  0  0  0  0  0  0  0  0  0  0  0
  -13.1361   -3.9676   14.8381 C   0  0  0  0  0  0  0  0  0  0  0  0
  -14.0579   -4.9023   14.5661 F   0  0  0  0  0  0  0  0  0  0  0  0
  -11.8180   -4.2484   14.5319 C   0  0  0  0  0  0  0  0  0  0  0  0
   -6.6785   -1.0828   13.3615 C   0  0  0  0  0  0  0  0  0  0  0  0
   -4.0576    0.3939   14.3606 C   0  0  0  0  0  0  0  0  0  0  0  0
   -3.6549   -0.2905   13.2594 N   0  0  0  0  0  0  0  0  0  0  0  0
   -3.3153    1.4552   14.9919 C   0  0  0  0  0  0  0  0  0  0  0  0
   -2.1610    1.9862   12.5217 H   0  0  0  0  0  0  0  0  0  0  0  0
   -0.5340    2.3686   13.1798 H   0  0  0  0  0  0  0  0  0  0  0  0
   -1.1907    0.7026   13.3201 H   0  0  0  0  0  0  0  0  0  0  0  0
   -5.8519    2.7708   18.2258 H   0  0  0  0  0  0  0  0  0  0  0  0
   -4.8840    2.3307   19.6736 H   0  0  0  0  0  0  0  0  0  0  0  0
   -5.4165    4.0290   19.4316 H   0  0  0  0  0  0  0  0  0  0  0  0
   -5.2442   -2.6293   14.9140 H   0  0  0  0  0  0  0  0  0  0  0  0
   -6.3989   -2.4988   16.0970 H   0  0  0  0  0  0  0  0  0  0  0  0
   -7.3068   -3.3343   13.3737 H   0  0  0  0  0  0  0  0  0  0  0  0
   -9.1481   -1.4302   14.2148 H   0  0  0  0  0  0  0  0  0  0  0  0
  -10.5515   -1.2620   15.5887 H   0  0  0  0  0  0  0  0  0  0  0  0
  -11.5298   -5.2083   14.0786 H   0  0  0  0  0  0  0  0  0  0  0  0
   -5.8482   -1.2125   12.6517 H   0  0  0  0  0  0  0  0  0  0  0  0
   -7.2915   -0.4031   12.7514 H   0  0  0  0  0  0  0  0  0  0  0  0
   -4.0700   -1.1929   13.0548 H   0  0  0  0  0  0  0  0  0  0  0  0
   -2.6846   -0.2755   12.9669 H   0  0  0  0  0  0  0  0  0  0  0  0
  1  2  1  0
  2  3  2  0
  3  4  1  0
  3  5  1  0
  5  6  2  0
  6  7  1  0
  7  8  2  0
  8  9  1  0
  8 10  1  0
 10 11  1  0
 11 12  1  0
 12 13  1  0
 13 14  1  0
 14 15  1  0
 15 16  1  0
 16 17  1  0
 17 18  1  0
 18 19  2  0
 18 20  1  0
 20 21  2  0
 21 22  1  0
 22 23  1  0
 22 24  2  0
 24 25  1  0
 25 26  1  0
 25 27  2  0
 16 28  1  0
 13 29  2  0
 29 30  1  0
 29 31  1  0
 31  2  1  0
 10  5  1  0
 31 11  2  0
 28 14  1  0
 27 20  1  0
  1 32  1  0
  1 33  1  0
  1 34  1  0
  9 35  1  0
  9 36  1  0
  9 37  1  0
 15 38  1  0
 15 39  1  0
 16 40  1  0
 17 41  1  0
 21 42  1  0
 27 43  1  0
 28 44  1  0
 28 45  1  0
 30 46  1  0
 30 47  1  0
M  END
$$$$
