PACER0010
     RDKit          3D

 53 58  0  0  0  0  0  0  0  0999 V2000
   -0.2919    2.8396   18.0824 C   0  0  0  0  0  0  0  0  0  0  0  0
   -0.2164    2.6731   16.5894 C   0  0  0  0  0  0  0  0  0  0  0  0
    0.8902    2.9766   15.8628 C   0  0  0  0  0  0  0  0  0  0  0  0
    2.3282    3.6464   16.5595 Cl  0  0  0  0  0  0  0  0  0  0  0  0
    0.9250    2.7443   14.4566 C   0  0  0  0  0  0  0  0  0  0  0  0
    1.8589    2.9544   13.5507 N   0  0  0  0  0  0  0  0  0  0  0  0
    1.3828    2.5323   12.3412 N   0  0  0  0  0  0  0  0  0  0  0  0
    0.1607    2.0681   12.5100 C   0  0  0  0  0  0  0  0  0  0  0  0
   -0.6755    1.5215   11.4175 C   0  0  0  0  0  0  0  0  0  0  0  0
   -0.1899    2.1820   13.8455 N   0  0  0  0  0  0  0  0  0  0  0  0
   -1.3308    1.8722   14.5823 C   0  0  0  0  0  0  0  0  0  0  0  0
   -2.7069    1.1836   13.9227 S   0  0  0  0  0  0  0  0  0  0  0  0
   -3.5118    1.2039   15.4398 C   0  0  0  0  0  0  0  0  0  0  0  0
   -4.8912    0.7199   15.5820 C   0  0  0  0  0  0  0  0  0  0  0  0
   -5.7712    1.4249   16.0742 O   0  0  0  0  0  0  0  0  0  0  0  0
   -5.1070   -0.5704   15.1220 N   0  0  0  0  0  0  0  0  0  0  0  0
   -6.3101   -1.2493   15.1406 C   0  0  0  0  0  0  0  0  0  0  0  0
   -7.2626   -1.3125   14.1004 C   0  0  0  0  0  0  0  0  0  0  0  0
   -8.3282   -2.0492   14.4202 N   0  0  0  0  0  0  0  0  0  0  0  0
   -8.0608   -2.4652   15.6747 N   0  0  0  0  0  0  0  0  0  0  0  0
   -8.9960   -3.3091   16.3870 C   0  0  0  0  0  0  0  0  0  0  0  0
  -10.3863   -3.3965   15.7233 C   0  0  0  0  0  0  0  0  0  0  0  0
  -11.2404   -3.7673   16.8998 C   0  0  0  0  0  0  0  0  0  0  0  0
  -12.5241   -4.2880   16.8894 C   0  0  0  0  0  0  0  0  0  0  0  0
  -13.1486   -4.5274   18.1140 C   0  0  0  0  0  0  0  0  0  0  0  0
  -12.4940   -4.2333   19.3221 C   0  0  0  0  0  0  0  0  0  0  0  0
  -11.2053   -3.6967   19.3224 C   0  0  0  0  0  0  0  0  0  0  0  0
  -10.5887   -3.4745   18.1029 C   0  0  0  0  0  0  0  0  0  0  0  0
   -9.2364   -2.8807   17.8494 C   0  0  0  0  0  0  0  0  0  0  0  0
   -6.8614   -2.0079   16.1453 C   0  0  0  0  0  0  0  0  0  0  0  0
   -2.6979    1.7511   16.4278 C   0  0  0  0  0  0  0  0  0  0  0  0
   -3.1337    1.8874   17.7030 N   0  0  0  0  0  0  0  0  0  0  0  0
   -1.3986    2.1200   15.9393 C   0  0  0  0  0  0  0  0  0  0  0  0
   -1.1370    2.2546   18.4742 H   0  0  0  0  0  0  0  0  0  0  0  0
    0.6435    2.4836   18.5388 H   0  0  0  0  0  0  0  0  0  0  0  0
   -0.4374    3.9024   18.3259 H   0  0  0  0  0  0  0  0  0  0  0  0
   -0.1448    1.6300   10.4602 H   0  0  0  0  0  0  0  0  0  0  0  0
   -0.8761    0.4567   11.6070 H   0  0  0  0  0  0  0  0  0  0  0  0
   -1.6270    2.0717   11.3737 H   0  0  0  0  0  0  0  0  0  0  0  0
   -4.3133   -1.0663   14.7380 H   0  0  0  0  0  0  0  0  0  0  0  0
   -7.1395   -0.8084   13.1305 H   0  0  0  0  0  0  0  0  0  0  0  0
   -8.4961   -4.2885   16.3557 H   0  0  0  0  0  0  0  0  0  0  0  0
  -10.6896   -2.4313   15.2917 H   0  0  0  0  0  0  0  0  0  0  0  0
  -10.4437   -4.1010   14.8804 H   0  0  0  0  0  0  0  0  0  0  0  0
  -13.0373   -4.5068   15.9413 H   0  0  0  0  0  0  0  0  0  0  0  0
  -14.1637   -4.9507   18.1339 H   0  0  0  0  0  0  0  0  0  0  0  0
  -13.0025   -4.4281   20.2779 H   0  0  0  0  0  0  0  0  0  0  0  0
  -10.6936   -3.4568   20.2661 H   0  0  0  0  0  0  0  0  0  0  0  0
   -9.2503   -1.7856   17.9524 H   0  0  0  0  0  0  0  0  0  0  0  0
   -8.4573   -3.2105   18.5524 H   0  0  0  0  0  0  0  0  0  0  0  0
   -6.4235   -2.2078   17.1344 H   0  0  0  0  0  0  0  0  0  0  0  0
   -3.5520    1.0681   18.1604 H   0  0  0  0  0  0  0  0  0  0  0  0
   -3.5844    2.7364   18.0265 H   0  0  0  0  0  0  0  0  0  0  0  0
  1  2  1  0
  2  3  2  0
  3  4  1  0
  3  5  1  0
  5  6  2  0
  6  7  1  0
  7  8  2  0
  8  9  1  0
  8 10  1  0
 10 11  1  0
 11 12  1  0
 12 13  1  0
 13 14  1  0
 14 15  2  0
 14 16  1  0
 16 17  1  0
 17 18  1  0
 18 19  2  0
 19 20  1  0
 20 21  1  0
 21 22  1  0
 22 23  1  0
 23 24  2  0
 24 25  1  0
 25 26  2  0
 26 27  1  0
 27 28  2  0
 28 29  1  0
 20 30  1  0
 13 31  2  0
 31 32  1  0
 31 33  1  0
 33  2  1  0
 10  5  1  0
 33 11  2  0
 30 17  2  0
 29 21  1  0
 28 23  1  0
  1 34  1  0
  1 35  1  0
  1 36  1  0
  9 37  1  0
  9 38  1  0
  9 39  1  0
 16 40  1  0
 18 41  1  0
 21 42  1  0
 22 43  1  0
 22 44  1  0
 24 45  1  0
 25 46  1  0
 26 47  1  0
 27 48  1  0
 29 49  1  0
 29 50  1  0
 30 51  1  0
 32 52  1  0
 32 53  1  0
M  END
$$$$
