PACERGEN00123__s00__v01
     RDKit          3D

 61 67  0  0  1  0  0  0  0  0999 V2000
   -4.0436   -1.7251   12.0270 C   0  0  0  0  0  0  0  0  0  1  0  0
   -4.0229   -1.2256   13.4642 C   0  0  0  0  0  0  0  0  0  2  0  0
   -3.3516    0.0022   13.7635 C   0  0  0  0  0  0  0  0  0  3  0  0
   -2.5168    0.9222   12.5552 Cl  0  0  0  0  0  0  0  0  0  4  0  0
   -3.3725    0.4748   15.1074 C   0  0  0  0  0  0  0  0  0  5  0  0
   -2.8349    1.5850   15.6404 N   0  0  0  0  0  0  0  0  0  6  0  0
   -3.1556    1.5785   17.0125 N   0  0  0  0  0  0  0  0  0  7  0  0
   -3.8605    0.4662   17.2262 C   0  0  0  0  0  0  0  0  0  8  0  0
   -3.9922   -0.1912   16.0820 N   0  0  0  0  0  0  0  0  0  9  0  0
   -4.6072   -1.3917   15.7614 C   0  0  0  0  0  0  0  0  0 10  0  0
   -5.3515   -2.3307   16.9862 S   0  0  0  0  0  0  0  0  0 11  0  0
   -5.7580   -3.5917   15.8069 C   0  0  0  0  0  0  0  0  0 12  0  0
   -6.3858   -4.7924   16.2599 N   0  0  0  0  0  0  0  0  0 13  0  0
   -7.2883   -5.5086   15.3735 C   0  0  0  0  0  0  0  0  0 14  0  0
   -8.2775   -5.5806   16.5473 C   0  0  0  0  0  0  0  0  0 15  0  0
   -9.6129   -4.9644   16.3027 N   0  0  2  0  0  0  0  0  0 16  0  0
  -10.3862   -5.5368   15.1982 C   0  0  0  0  0  0  0  0  0 17  0  0
  -10.6230   -4.1342   14.6335 C   0  0  2  0  0  0  0  0  0 18  0  0
  -10.0523   -3.9271   13.2822 N   0  0  0  0  0  0  0  0  0 19  0  0
  -10.8990   -4.2879   12.1269 C   0  0  0  0  0  0  0  0  0 20  0  0
  -12.0432   -3.2804   11.8439 C   0  0  0  0  0  0  0  0  0 21  0  0
  -12.1509   -3.3033   10.3416 C   0  0  0  0  0  0  0  0  0 22  0  0
  -13.1714   -2.7496    9.5484 C   0  0  0  0  0  0  0  0  0 23  0  0
  -13.0683   -2.8712    8.1442 C   0  0  0  0  0  0  0  0  0 24  0  0
  -11.9621   -3.5316    7.5579 C   0  0  0  0  0  0  0  0  0 25  0  0
  -10.9442   -4.0768    8.3701 C   0  0  0  0  0  0  0  0  0 26  0  0
  -11.0617   -3.9454    9.7647 C   0  0  0  0  0  0  0  0  0 27  0  0
  -10.0891   -4.4143   10.8098 C   0  0  0  0  0  0  0  0  0 28  0  0
   -9.6947   -3.6128   15.7338 C   0  0  0  0  0  0  0  0  0 29  0  0
   -7.3256   -4.6986   17.3692 C   0  0  0  0  0  0  0  0  0 30  0  0
   -5.3260   -3.2969   14.5065 C   0  0  0  0  0  0  0  0  0 31  0  0
   -5.4650   -4.1231   13.3781 N   0  0  0  0  0  0  0  0  0 32  0  0
   -4.6574   -1.9996   14.4917 C   0  0  0  0  0  0  0  0  0 33  0  0
   -5.0293   -2.1076   11.7671 H   0  0  0  0  0  0  0  0  0 34  0  0
   -3.3085   -2.5185   11.9020 H   0  0  0  0  0  0  0  0  0 35  0  0
   -3.8272   -0.9473   11.2967 H   0  0  0  0  0  0  0  0  0 36  0  0
   -4.2550    0.1570   18.1828 H   0  0  0  0  0  0  0  0  0 37  0  0
   -7.6343   -4.9275   14.5209 H   0  0  0  0  0  0  0  0  0 38  0  0
   -6.8893   -6.4775   15.0716 H   0  0  0  0  0  0  0  0  0 39  0  0
   -8.3593   -6.5906   16.9539 H   0  0  0  0  0  0  0  0  0 40  0  0
  -10.1611   -4.9967   17.1526 H   0  0  0  0  0  0  0  0  0 41  0  0
   -9.8141   -6.1971   14.5449 H   0  0  0  0  0  0  0  0  0 42  0  0
  -11.2899   -6.0244   15.5560 H   0  0  0  0  0  0  0  0  0 43  0  0
  -11.6485   -3.7781   14.7462 H   0  0  0  0  0  0  0  0  0 44  0  0
   -9.8663   -2.9300   13.1562 H   0  0  0  0  0  0  0  0  0 45  0  0
   -9.1741   -4.4167   13.2021 H   0  0  0  0  0  0  0  0  0 46  0  0
  -11.3546   -5.2632   12.3089 H   0  0  0  0  0  0  0  0  0 47  0  0
  -12.9807   -3.5701   12.3209 H   0  0  0  0  0  0  0  0  0 48  0  0
  -11.7864   -2.2670   12.1586 H   0  0  0  0  0  0  0  0  0 49  0  0
  -14.0128   -2.2433    9.9987 H   0  0  0  0  0  0  0  0  0 50  0  0
  -13.8394   -2.4566    7.5123 H   0  0  0  0  0  0  0  0  0 51  0  0
  -11.8940   -3.6204    6.4827 H   0  0  0  0  0  0  0  0  0 52  0  0
  -10.0953   -4.5769    7.9270 H   0  0  0  0  0  0  0  0  0 53  0  0
   -9.2259   -3.7460   10.7937 H   0  0  0  0  0  0  0  0  0 54  0  0
   -9.7460   -5.4309   10.6134 H   0  0  0  0  0  0  0  0  0 55  0  0
  -10.1792   -2.9134   16.4167 H   0  0  0  0  0  0  0  0  0 56  0  0
   -8.7512   -3.2027   15.3715 H   0  0  0  0  0  0  0  0  0 57  0  0
   -6.9512   -5.1761   18.2762 H   0  0  0  0  0  0  0  0  0 58  0  0
   -7.7011   -3.6921   17.5597 H   0  0  0  0  0  0  0  0  0 59  0  0
   -5.4991   -5.1155   13.5599 H   0  0  0  0  0  0  0  0  0 60  0  0
   -4.9717   -3.8975   12.5203 H   0  0  0  0  0  0  0  0  0 61  0  0
  1  2  1  0
  1 34  1  0
  1 35  1  0
  1 36  1  0
  2  3  2  0
  2 33  1  0
  3  4  1  0
  3  5  1  0
  5  6  2  0
  5  9  1  0
  6  7  1  0
  7  8  2  0
  8  9  1  0
  8 37  1  0
  9 10  1  0
 10 11  1  0
 10 33  2  0
 11 12  1  0
 12 13  1  0
 12 31  2  0
 13 14  1  0
 13 30  1  0
 14 15  1  0
 14 38  1  0
 14 39  1  0
 15 16  1  0
 15 30  1  0
 15 40  1  0
 16 17  1  0
 16 29  1  0
 16 41  1  1
 17 18  1  0
 17 42  1  0
 17 43  1  0
 18 19  1  0
 18 29  1  0
 18 44  1  6
 19 20  1  0
 19 45  1  0
 19 46  1  0
 20 21  1  0
 20 28  1  0
 20 47  1  0
 21 22  1  0
 21 48  1  0
 21 49  1  0
 22 23  1  0
 22 27  2  0
 23 24  2  0
 23 50  1  0
 24 25  1  0
 24 51  1  0
 25 26  2  0
 25 52  1  0
 26 27  1  0
 26 53  1  0
 27 28  1  0
 28 54  1  0
 28 55  1  0
 29 56  1  0
 29 57  1  0
 30 58  1  0
 30 59  1  0
 31 32  1  0
 31 33  1  0
 32 60  1  0
 32 61  1  0
M  CHG  2  16   1  19   1
M  END
>  <candidate_id>  (1) 
PACERGEN00123

>  <parent_smiles>  (1) 
Cc1c(Cl)c2nncn2c2sc(N3CC(N4CC(NC5Cc6ccccc6C5)C4)C3)c(N)c12

>  <ligand_state_id>  (1) 
PACERGEN00123__s00

>  <state_smiles>  (1) 
Cc1c(Cl)c2nncn2c2sc(N3CC([NH+]4CC([NH2+]C5Cc6ccccc6C5)C4)C3)c(N)c12

>  <s_m_source_file>  (1) 
ph7_3d.sdf

>  <i_m_source_file_index>  (1) 
1

>  <i_lp_mmshare_version>  (1) 
61128

>  <i_f3d_flags>  (1) 
0

>  <s_lp_Force_Field>  (1) 
OPLS_2005

>  <r_lp_Energy>  (1) 
100.015023

>  <b_lp_Chiralities_Consistent>  (1) 
1

>  <s_lp_Variant>  (1) 
PACERGEN00123__s00-1

>  <s_pacer_candidate_id>  (1) 
PACERGEN00123

>  <s_pacer_canonical_smiles>  (1) 
Cc1c(Cl)c2nncn2c2sc(N3CC(N4CC(NC5Cc6ccccc6C5)C4)C3)c(N)c12

>  <i_pacer_rerun_final_rank>  (1) 
114

>  <s_pacer_molscrub_state_id>  (1) 
PACERGEN00123__s00

>  <s_pacer_prepared_variant_id>  (1) 
PACERGEN00123__s00__v01

>  <s_i_glide_gridfile>  (1) 
grid

>  <i_i_glide_lignum>  (1) 
142

>  <i_i_glide_rotatable_bonds>  (1) 
4

>  <r_i_docking_score>  (1) 
-10.3932788220934

>  <r_i_glide_ligand_efficiency>  (1) 
-0.314947843093739

>  <r_i_glide_ligand_efficiency_sa>  (1) 
-1.01020601770391

>  <r_i_glide_ligand_efficiency_ln>  (1) 
-2.31141139651587

>  <r_i_glide_gscore>  (1) 
-10.3932788220934

>  <r_i_glide_lipo>  (1) 
-4.6282452430344

>  <r_i_glide_hbond>  (1) 
-0.311609857143829

>  <r_i_glide_metal>  (1) 
-0

>  <r_i_glide_rewards>  (1) 
-1.88326322481183

>  <r_i_glide_evdw>  (1) 
-50.3066673278809

>  <r_i_glide_ecoul>  (1) 
-9.14293003082275

>  <r_i_glide_erotb>  (1) 
0.349286975448303

>  <r_i_glide_esite>  (1) 
-0.0326746015341868

>  <r_i_glide_emodel>  (1) 
-86.8811010965953

>  <r_i_glide_energy>  (1) 
-59.4495973587036

>  <r_i_glide_einternal>  (1) 
14.1009664535522

>  <i_i_glide_confnum>  (1) 
86

>  <i_i_glide_posenum>  (1) 
200

>  <r_i_glide_eff_state_penalty>  (1) 
0

$$$$
