PACERGEN02432__s00__v01
                    3D
 Schrodinger Suite 2023-1.
 58 64  0  0  1  0            999 V2000
   44.2491   49.7415   64.3036 C   0  0  0  0  0  0
   44.1195   49.3671   62.8295 C   0  0  0  0  0  0
   44.9776   48.3695   62.2814 C   0  0  0  0  0  0
   46.1440   47.5291   63.2422 Cl  0  0  0  0  0  0
   44.8681   48.0632   60.8961 C   0  0  0  0  0  0
   45.5755   47.1755   60.1836 N   0  0  0  0  0  0
   45.1049   47.2525   58.8639 N   0  0  0  0  0  0
   44.1392   48.1754   58.8443 C   0  0  0  0  0  0
   43.3739   48.5621   57.6197 C   0  0  0  0  0  0
   43.9913   48.6648   60.0817 N   0  0  0  0  0  0
   43.1502   49.6215   60.6566 C   0  0  0  0  0  0
   41.9593   50.4611   59.7272 S   0  0  0  0  0  0
   41.4074   51.3221   61.1630 C   0  0  0  0  0  0
   40.3062   52.1742   61.0729 N   0  0  0  0  0  0
   39.2807   52.2414   62.0459 C   0  0  0  0  0  0
   38.5368   53.3572   62.5262 C   0  0  0  0  0  0
   37.7264   53.0344   63.5245 N   0  0  0  0  0  0
   37.8733   51.6986   63.6675 N   0  0  0  0  0  0
   37.1653   50.9954   64.6592 C   0  0  0  0  0  0
   36.1966   49.9710   64.5088 C   0  0  0  0  0  0
   35.7648   49.5662   65.6982 N   0  0  0  0  0  0
   36.4519   50.3141   66.6049 N   0  0  0  0  0  0
   36.2606   50.1228   68.0342 C   0  0  0  0  0  0
   34.7964   50.1762   68.5186 C   0  0  0  0  0  0
   34.7837   49.2662   69.7143 C   0  0  0  0  0  0
   33.8068   49.1763   70.7209 C   0  0  0  0  0  0
   34.0123   48.2462   71.7642 C   0  0  0  0  0  0
   35.1686   47.4290   71.7817 C   0  0  0  0  0  0
   36.1363   47.5333   70.7581 C   0  0  0  0  0  0
   35.9192   48.4711   69.7322 C   0  0  0  0  0  0
   36.7949   48.7763   68.5431 C   0  0  0  0  0  0
   37.3378   51.1764   65.9956 C   0  0  0  0  0  0
   38.7926   51.1942   62.7768 C   0  0  0  0  0  0
   42.1447   51.0365   62.3095 C   0  0  0  0  0  0
   41.9471   51.6233   63.5638 N   0  0  0  0  0  0
   43.1458   50.0250   62.0132 C   0  0  0  0  0  0
   43.3199   49.5510   64.8338 H   0  0  0  0  0  0
   45.0240   49.1955   64.8369 H   0  0  0  0  0  0
   44.4963   50.7973   64.4024 H   0  0  0  0  0  0
   43.7104   47.9738   56.7665 H   0  0  0  0  0  0
   43.5324   49.6157   57.3901 H   0  0  0  0  0  0
   42.3080   48.3763   57.7567 H   0  0  0  0  0  0
   40.3268   52.8775   60.3477 H   0  0  0  0  0  0
   38.5988   54.3909   62.2200 H   0  0  0  0  0  0
   35.7978   49.5265   63.6092 H   0  0  0  0  0  0
   36.8040   50.9080   68.5631 H   0  0  0  0  0  0
   34.4663   51.1767   68.7635 H   0  0  0  0  0  0
   34.1365   49.7463   67.7716 H   0  0  0  0  0  0
   32.9280   49.8043   70.7004 H   0  0  0  0  0  0
   33.2798   48.1567   72.5530 H   0  0  0  0  0  0
   35.3118   46.7185   72.5820 H   0  0  0  0  0  0
   37.0196   46.9110   70.7659 H   0  0  0  0  0  0
   36.5861   48.0081   67.7954 H   0  0  0  0  0  0
   37.8606   48.7882   68.7637 H   0  0  0  0  0  0
   37.9803   51.8395   66.5531 H   0  0  0  0  0  0
   39.0511   50.1459   62.7621 H   0  0  0  0  0  0
   41.3525   52.4383   63.6188 H   0  0  0  0  0  0
   42.6412   51.5578   64.2949 H   0  0  0  0  0  0
  1  2  1  0  0  0
  1 37  1  0  0  0
  1 38  1  0  0  0
  1 39  1  0  0  0
  2  3  2  0  0  0
  2 36  1  0  0  0
  3  4  1  0  0  0
  3  5  1  0  0  0
  5  6  2  0  0  0
  5 10  1  0  0  0
  6  7  1  0  0  0
  7  8  2  0  0  0
  8  9  1  0  0  0
  8 10  1  0  0  0
  9 40  1  0  0  0
  9 41  1  0  0  0
  9 42  1  0  0  0
 10 11  1  0  0  0
 11 12  1  0  0  0
 11 36  2  0  0  0
 12 13  1  0  0  0
 13 14  1  0  0  0
 13 34  2  0  0  0
 14 15  1  0  0  0
 14 43  1  0  0  0
 15 16  1  0  0  0
 15 33  2  0  0  0
 16 17  2  0  0  0
 16 44  1  0  0  0
 17 18  1  0  0  0
 18 19  1  0  0  0
 18 33  1  0  0  0
 19 20  1  0  0  0
 19 32  2  0  0  0
 20 21  2  0  0  0
 20 45  1  0  0  0
 21 22  1  0  0  0
 22 23  1  0  0  0
 22 32  1  0  0  0
 23 24  1  0  0  0
 23 31  1  0  0  0
 23 46  1  0  0  0
 24 25  1  0  0  0
 24 47  1  0  0  0
 24 48  1  0  0  0
 25 26  2  0  0  0
 25 30  1  0  0  0
 26 27  1  0  0  0
 26 49  1  0  0  0
 27 28  2  0  0  0
 27 50  1  0  0  0
 28 29  1  0  0  0
 28 51  1  0  0  0
 29 30  2  0  0  0
 29 52  1  0  0  0
 30 31  1  0  0  0
 31 53  1  0  0  0
 31 54  1  0  0  0
 32 55  1  0  0  0
 33 56  1  0  0  0
 34 35  1  0  0  0
 34 36  1  0  0  0
 35 57  1  0  0  0
 35 58  1  0  0  0
M  END
> <candidate_id>
PACERGEN02432

> <parent_smiles>
Cc1c(Cl)c2nnc(C)n2c2sc(Nc3cnn(-c4cnn(C5Cc6ccccc6C5)c4)c3)c(N)c12

> <ligand_state_id>
PACERGEN02432__s00

> <state_smiles>
Cc1c(Cl)c2nnc(C)n2c2sc(Nc3cnn(-c4cnn(C5Cc6ccccc6C5)c4)c3)c(N)c12

> <s_m_source_file>
ph7_3d.sdf

> <i_m_source_file_index>
1

> <i_lp_mmshare_version>
61128

> <i_f3d_flags>
0

> <s_lp_Force_Field>
OPLS_2005

> <r_lp_Energy>
72.144268

> <b_lp_Chiralities_Consistent>
1

> <s_lp_Variant>
PACERGEN02432__s00-1

> <s_pacer_candidate_id>
PACERGEN02432

> <s_pacer_canonical_smiles>
Cc1c(Cl)c2nnc(C)n2c2sc(Nc3cnn(-c4cnn(C5Cc6ccccc6C5)c4)c3)c(N)c12

> <i_pacer_rerun_final_rank>
15

> <s_pacer_molscrub_state_id>
PACERGEN02432__s00

> <s_pacer_prepared_variant_id>
PACERGEN02432__s00__v01

> <s_i_glide_gridfile>
grid

> <i_i_glide_lignum>
19

> <i_i_glide_rotatable_bonds>
4

> <r_i_docking_score>
-10.5977417530992

> <r_i_glide_ligand_efficiency>
-0.294381715363867

> <r_i_glide_ligand_efficiency_sa>
-0.972027006375201

> <r_i_glide_ligand_efficiency_ln>
-2.31214093263219

> <r_i_glide_gscore>
-10.5977417530992

> <r_i_glide_lipo>
-5.49790063451437

> <r_i_glide_hbond>
-0.197675018973138

> <r_i_glide_metal>
-0

> <r_i_glide_rewards>
-1.67827463874616

> <r_i_glide_evdw>
-59.0909042358398

> <r_i_glide_ecoul>
-3.8509247303009

> <r_i_glide_erotb>
0.308292460471598

> <r_i_glide_esite>
0

> <r_i_glide_emodel>
-94.0901410915936

> <r_i_glide_energy>
-62.9418289661407

> <r_i_glide_einternal>
9.66304969787598

> <i_i_glide_confnum>
10

> <i_i_glide_posenum>
114

> <r_i_glide_eff_state_penalty>
0

$$$$
