PACERGEN00462__s00__v01
     RDKit          3D

 64 70  0  0  1  0  0  0  0  0999 V2000
   -4.1822   -1.7761   11.9207 C   0  0  0  0  0  0  0  0  0  1  0  0
   -4.0905   -1.2922   13.3604 C   0  0  0  0  0  0  0  0  0  2  0  0
   -3.3787   -0.0836   13.6114 C   0  0  0  0  0  0  0  0  0  3  0  0
   -2.5911    0.8052   12.3487 Cl  0  0  0  0  0  0  0  0  0  4  0  0
   -3.3043    0.3921   14.9475 C   0  0  0  0  0  0  0  0  0  5  0  0
   -2.6872    1.4880   15.4028 N   0  0  0  0  0  0  0  0  0  6  0  0
   -2.8921    1.5256   16.7869 N   0  0  0  0  0  0  0  0  0  7  0  0
   -3.6148    0.4482   17.1027 C   0  0  0  0  0  0  0  0  0  8  0  0
   -4.0209    0.0979   18.4969 C   0  0  0  0  0  0  0  0  0  9  0  0
   -3.8747   -0.2368   15.9802 N   0  0  0  0  0  0  0  0  0 10  0  0
   -4.5505   -1.4265   15.6964 C   0  0  0  0  0  0  0  0  0 11  0  0
   -5.2737   -2.3582   16.9464 S   0  0  0  0  0  0  0  0  0 12  0  0
   -5.7534   -3.6144   15.7974 C   0  0  0  0  0  0  0  0  0 13  0  0
   -6.3816   -4.8015   16.2842 N   0  0  0  0  0  0  0  0  0 14  0  0
   -7.3643   -5.4826   15.4582 C   0  0  0  0  0  0  0  0  0 15  0  0
   -8.2726   -5.5333   16.6979 C   0  0  0  0  0  0  0  0  0 16  0  0
   -9.5993   -4.8649   16.5612 N   0  0  2  0  0  0  0  0  0 17  0  0
  -10.4865   -5.4127   15.5324 C   0  0  0  0  0  0  0  0  0 18  0  0
  -10.6229   -4.0248   14.8997 C   0  0  2  0  0  0  0  0  0 19  0  0
  -10.0180   -3.9169   13.5520 N   0  0  0  0  0  0  0  0  0 20  0  0
  -10.8361   -4.3309   12.3957 C   0  0  0  0  0  0  0  0  0 21  0  0
  -11.9840   -3.3502   12.0404 C   0  0  0  0  0  0  0  0  0 22  0  0
  -12.0150   -3.3982   10.5348 C   0  0  0  0  0  0  0  0  0 23  0  0
  -12.9887   -2.8553    9.6813 C   0  0  0  0  0  0  0  0  0 24  0  0
  -12.8079   -2.9826    8.2860 C   0  0  0  0  0  0  0  0  0 25  0  0
  -11.6632   -3.6311    7.7661 C   0  0  0  0  0  0  0  0  0 26  0  0
  -10.6874   -4.1599    8.6379 C   0  0  0  0  0  0  0  0  0 27  0  0
  -10.8941   -4.0360   10.0217 C   0  0  0  0  0  0  0  0  0 28  0  0
   -9.9751   -4.4800   11.1180 C   0  0  0  0  0  0  0  0  0 29  0  0
   -9.6786   -3.5129   15.9918 C   0  0  0  0  0  0  0  0  0 30  0  0
   -7.2340   -4.6992   17.4618 C   0  0  0  0  0  0  0  0  0 31  0  0
   -5.3689   -3.3328   14.4818 C   0  0  0  0  0  0  0  0  0 32  0  0
   -5.5643   -4.1698   13.3712 N   0  0  0  0  0  0  0  0  0 33  0  0
   -4.6815   -2.0444   14.4296 C   0  0  0  0  0  0  0  0  0 34  0  0
   -5.1093   -2.3105   11.7295 H   0  0  0  0  0  0  0  0  0 35  0  0
   -4.1742   -0.9534   11.2061 H   0  0  0  0  0  0  0  0  0 36  0  0
   -3.3356   -2.4249   11.6952 H   0  0  0  0  0  0  0  0  0 37  0  0
   -3.6706    0.8608   19.1926 H   0  0  0  0  0  0  0  0  0 38  0  0
   -3.5816   -0.8555   18.7902 H   0  0  0  0  0  0  0  0  0 39  0  0
   -5.1051    0.0412   18.5768 H   0  0  0  0  0  0  0  0  0 40  0  0
   -7.7398   -4.8800   14.6352 H   0  0  0  0  0  0  0  0  0 41  0  0
   -7.0191   -6.4625   15.1250 H   0  0  0  0  0  0  0  0  0 42  0  0
   -8.3621   -6.5447   17.0991 H   0  0  0  0  0  0  0  0  0 43  0  0
  -10.0704   -4.8756   17.4563 H   0  0  0  0  0  0  0  0  0 44  0  0
  -10.0218   -6.1646   14.8912 H   0  0  0  0  0  0  0  0  0 45  0  0
  -11.4109   -5.7824   15.9730 H   0  0  0  0  0  0  0  0  0 46  0  0
  -11.6250   -3.5985   14.9729 H   0  0  0  0  0  0  0  0  0 47  0  0
   -9.7654   -2.9436   13.3632 H   0  0  0  0  0  0  0  0  0 48  0  0
   -9.1620   -4.4518   13.5295 H   0  0  0  0  0  0  0  0  0 49  0  0
  -11.2801   -5.3080   12.5964 H   0  0  0  0  0  0  0  0  0 50  0  0
  -12.9386   -3.6526   12.4731 H   0  0  0  0  0  0  0  0  0 51  0  0
  -11.7645   -2.3283   12.3524 H   0  0  0  0  0  0  0  0  0 52  0  0
  -13.8557   -2.3484   10.0798 H   0  0  0  0  0  0  0  0  0 53  0  0
  -13.5464   -2.5749    7.6109 H   0  0  0  0  0  0  0  0  0 54  0  0
  -11.5295   -3.7158    6.6974 H   0  0  0  0  0  0  0  0  0 55  0  0
   -9.8036   -4.6437    8.2510 H   0  0  0  0  0  0  0  0  0 56  0  0
   -9.1405   -3.7863   11.1191 H   0  0  0  0  0  0  0  0  0 57  0  0
   -9.5873   -5.4868   10.9653 H   0  0  0  0  0  0  0  0  0 58  0  0
  -10.1581   -2.8157   16.6809 H   0  0  0  0  0  0  0  0  0 59  0  0
   -8.7361   -3.1034   15.6252 H   0  0  0  0  0  0  0  0  0 60  0  0
   -6.8096   -5.2077   18.3291 H   0  0  0  0  0  0  0  0  0 61  0  0
   -7.5640   -3.6872   17.6999 H   0  0  0  0  0  0  0  0  0 62  0  0
   -5.6226   -5.1587   13.5717 H   0  0  0  0  0  0  0  0  0 63  0  0
   -5.0595   -3.9726   12.5116 H   0  0  0  0  0  0  0  0  0 64  0  0
  1  2  1  0
  1 35  1  0
  1 36  1  0
  1 37  1  0
  2  3  2  0
  2 34  1  0
  3  4  1  0
  3  5  1  0
  5  6  2  0
  5 10  1  0
  6  7  1  0
  7  8  2  0
  8  9  1  0
  8 10  1  0
  9 38  1  0
  9 39  1  0
  9 40  1  0
 10 11  1  0
 11 12  1  0
 11 34  2  0
 12 13  1  0
 13 14  1  0
 13 32  2  0
 14 15  1  0
 14 31  1  0
 15 16  1  0
 15 41  1  0
 15 42  1  0
 16 17  1  0
 16 31  1  0
 16 43  1  0
 17 18  1  0
 17 30  1  0
 17 44  1  1
 18 19  1  0
 18 45  1  0
 18 46  1  0
 19 20  1  0
 19 30  1  0
 19 47  1  6
 20 21  1  0
 20 48  1  0
 20 49  1  0
 21 22  1  0
 21 29  1  0
 21 50  1  0
 22 23  1  0
 22 51  1  0
 22 52  1  0
 23 24  1  0
 23 28  2  0
 24 25  2  0
 24 53  1  0
 25 26  1  0
 25 54  1  0
 26 27  2  0
 26 55  1  0
 27 28  1  0
 27 56  1  0
 28 29  1  0
 29 57  1  0
 29 58  1  0
 30 59  1  0
 30 60  1  0
 31 61  1  0
 31 62  1  0
 32 33  1  0
 32 34  1  0
 33 63  1  0
 33 64  1  0
M  CHG  2  17   1  20   1
M  END
>  <candidate_id>  (1) 
PACERGEN00462

>  <parent_smiles>  (1) 
Cc1c(Cl)c2nnc(C)n2c2sc(N3CC(N4CC(NC5Cc6ccccc6C5)C4)C3)c(N)c12

>  <ligand_state_id>  (1) 
PACERGEN00462__s00

>  <state_smiles>  (1) 
Cc1c(Cl)c2nnc(C)n2c2sc(N3CC([NH+]4CC([NH2+]C5Cc6ccccc6C5)C4)C3)c(N)c12

>  <s_m_source_file>  (1) 
ph7_3d.sdf

>  <i_m_source_file_index>  (1) 
1

>  <i_lp_mmshare_version>  (1) 
61128

>  <i_f3d_flags>  (1) 
0

>  <s_lp_Force_Field>  (1) 
OPLS_2005

>  <r_lp_Energy>  (1) 
100.998174

>  <b_lp_Chiralities_Consistent>  (1) 
1

>  <s_lp_Variant>  (1) 
PACERGEN00462__s00-1

>  <s_pacer_candidate_id>  (1) 
PACERGEN00462

>  <s_pacer_canonical_smiles>  (1) 
Cc1c(Cl)c2nnc(C)n2c2sc(N3CC(N4CC(NC5Cc6ccccc6C5)C4)C3)c(N)c12

>  <i_pacer_rerun_final_rank>  (1) 
137

>  <s_pacer_molscrub_state_id>  (1) 
PACERGEN00462__s00

>  <s_pacer_prepared_variant_id>  (1) 
PACERGEN00462__s00__v01

>  <s_i_glide_gridfile>  (1) 
grid

>  <i_i_glide_lignum>  (1) 
177

>  <i_i_glide_rotatable_bonds>  (1) 
4

>  <r_i_docking_score>  (1) 
-10.2091140447889

>  <r_i_glide_ligand_efficiency>  (1) 
-0.300268060140849

>  <r_i_glide_ligand_efficiency_sa>  (1) 
-0.972751950035567

>  <r_i_glide_ligand_efficiency_ln>  (1) 
-2.2554796484433

>  <r_i_glide_gscore>  (1) 
-10.2091140447889

>  <r_i_glide_lipo>  (1) 
-4.55504564413293

>  <r_i_glide_hbond>  (1) 
-0.32

>  <r_i_glide_metal>  (1) 
-0

>  <r_i_glide_rewards>  (1) 
-1.74938406286718

>  <r_i_glide_evdw>  (1) 
-51.2508010864258

>  <r_i_glide_ecoul>  (1) 
-8.83443450927734

>  <r_i_glide_erotb>  (1) 
0.331423853196388

>  <r_i_glide_esite>  (1) 
-0.0284029602722575

>  <r_i_glide_emodel>  (1) 
-88.3024074365201

>  <r_i_glide_energy>  (1) 
-60.0852355957031

>  <r_i_glide_einternal>  (1) 
16.279203414917

>  <i_i_glide_confnum>  (1) 
86

>  <i_i_glide_posenum>  (1) 
313

>  <r_i_glide_eff_state_penalty>  (1) 
0

$$$$
