PACERGEN02432__s00__v01
     RDKit          3D

 58 64  0  0  1  0  0  0  0  0999 V2000
   -3.8226   -1.7983   12.7707 C   0  0  0  0  0  0  0  0  0  1  0  0
   -4.1085   -1.4966   14.2395 C   0  0  0  0  0  0  0  0  0  2  0  0
   -3.5305   -0.3420   14.8435 C   0  0  0  0  0  0  0  0  0  3  0  0
   -2.5408    0.7637   13.9559 Cl  0  0  0  0  0  0  0  0  0  4  0  0
   -3.7767   -0.0999   16.2239 C   0  0  0  0  0  0  0  0  0  5  0  0
   -3.3283    0.9095   16.9829 N   0  0  0  0  0  0  0  0  0  6  0  0
   -3.8344    0.6976   18.2743 N   0  0  0  0  0  0  0  0  0  7  0  0
   -4.5629   -0.4216   18.2321 C   0  0  0  0  0  0  0  0  0  8  0  0
   -5.2798   -1.0001   19.4094 C   0  0  0  0  0  0  0  0  0  9  0  0
   -4.5322   -0.9039   16.9834 N   0  0  0  0  0  0  0  0  0 10  0  0
   -5.1018   -2.0142   16.3540 C   0  0  0  0  0  0  0  0  0 11  0  0
   -6.1139   -3.1240   17.2089 S   0  0  0  0  0  0  0  0  0 12  0  0
   -6.3809   -4.0558   15.7365 C   0  0  0  0  0  0  0  0  0 13  0  0
   -7.2607   -5.1385   15.7581 N   0  0  0  0  0  0  0  0  0 14  0  0
   -8.1934   -5.4161   14.7304 C   0  0  0  0  0  0  0  0  0 15  0  0
   -8.6367   -6.6611   14.1990 C   0  0  0  0  0  0  0  0  0 16  0  0
   -9.4482   -6.5095   13.1618 N   0  0  0  0  0  0  0  0  0 17  0  0
   -9.6042   -5.1726   13.0407 N   0  0  0  0  0  0  0  0  0 18  0  0
  -10.4037   -4.6274   12.0195 C   0  0  0  0  0  0  0  0  0 19  0  0
  -11.5876   -3.8547   12.1278 C   0  0  0  0  0  0  0  0  0 20  0  0
  -12.0402   -3.5325   10.9211 N   0  0  0  0  0  0  0  0  0 21  0  0
  -11.1554   -4.0834   10.0452 N   0  0  0  0  0  0  0  0  0 22  0  0
  -11.3132   -3.9088    8.6097 C   0  0  0  0  0  0  0  0  0 23  0  0
  -12.7000   -4.2840    8.0462 C   0  0  0  0  0  0  0  0  0 24  0  0
  -12.8607   -3.3743    6.8611 C   0  0  0  0  0  0  0  0  0 25  0  0
  -13.7803   -3.4872    5.8041 C   0  0  0  0  0  0  0  0  0 26  0  0
  -13.7411   -2.5115    4.7831 C   0  0  0  0  0  0  0  0  0 27  0  0
  -12.8034   -1.4518    4.8367 C   0  0  0  0  0  0  0  0  0 28  0  0
  -11.8903   -1.3555    5.9099 C   0  0  0  0  0  0  0  0  0 29  0  0
  -11.9381   -2.3409    6.9129 C   0  0  0  0  0  0  0  0  0 30  0  0
  -11.0767   -2.4648    8.1444 C   0  0  0  0  0  0  0  0  0 31  0  0
  -10.1273   -4.7342   10.6925 C   0  0  0  0  0  0  0  0  0 32  0  0
   -8.8709   -4.4918   13.9850 C   0  0  0  0  0  0  0  0  0 33  0  0
   -5.6720   -3.5838   14.6346 C   0  0  0  0  0  0  0  0  0 34  0  0
   -5.6665   -4.1720   13.3655 N   0  0  0  0  0  0  0  0  0 35  0  0
   -4.9454   -2.3775   14.9951 C   0  0  0  0  0  0  0  0  0 36  0  0
   -4.7428   -1.8131   12.1931 H   0  0  0  0  0  0  0  0  0 37  0  0
   -3.1676   -1.0780   12.2859 H   0  0  0  0  0  0  0  0  0 38  0  0
   -3.3355   -2.7673   12.6746 H   0  0  0  0  0  0  0  0  0 39  0  0
   -5.1304   -0.3698   20.2855 H   0  0  0  0  0  0  0  0  0 40  0  0
   -4.8959   -1.9946   19.6363 H   0  0  0  0  0  0  0  0  0 41  0  0
   -6.3516   -1.0594   19.2168 H   0  0  0  0  0  0  0  0  0 42  0  0
   -7.1161   -5.8347   16.4760 H   0  0  0  0  0  0  0  0  0 43  0  0
   -8.3550   -7.6601   14.4974 H   0  0  0  0  0  0  0  0  0 44  0  0
  -12.1223   -3.5333   13.0091 H   0  0  0  0  0  0  0  0  0 45  0  0
  -10.5786   -4.5371    8.1029 H   0  0  0  0  0  0  0  0  0 46  0  0
  -12.7794   -5.3277    7.7735 H   0  0  0  0  0  0  0  0  0 47  0  0
  -13.4776   -4.0329    8.7609 H   0  0  0  0  0  0  0  0  0 48  0  0
  -14.4917   -4.2994    5.7705 H   0  0  0  0  0  0  0  0  0 49  0  0
  -14.4340   -2.5739    3.9568 H   0  0  0  0  0  0  0  0  0 50  0  0
  -12.7866   -0.7096    4.0526 H   0  0  0  0  0  0  0  0  0 51  0  0
  -11.1738   -0.5480    5.9564 H   0  0  0  0  0  0  0  0  0 52  0  0
  -11.4933   -1.7814    8.8876 H   0  0  0  0  0  0  0  0  0 53  0  0
  -10.0269   -2.2282    7.9817 H   0  0  0  0  0  0  0  0  0 54  0  0
   -9.3228   -5.2205   10.1638 H   0  0  0  0  0  0  0  0  0 55  0  0
   -8.8606   -3.4127   14.0245 H   0  0  0  0  0  0  0  0  0 56  0  0
   -6.0551   -5.0997   13.2700 H   0  0  0  0  0  0  0  0  0 57  0  0
   -4.9700   -3.9333   12.6737 H   0  0  0  0  0  0  0  0  0 58  0  0
  1  2  1  0
  1 37  1  0
  1 38  1  0
  1 39  1  0
  2  3  2  0
  2 36  1  0
  3  4  1  0
  3  5  1  0
  5  6  2  0
  5 10  1  0
  6  7  1  0
  7  8  2  0
  8  9  1  0
  8 10  1  0
  9 40  1  0
  9 41  1  0
  9 42  1  0
 10 11  1  0
 11 12  1  0
 11 36  2  0
 12 13  1  0
 13 14  1  0
 13 34  2  0
 14 15  1  0
 14 43  1  0
 15 16  1  0
 15 33  2  0
 16 17  2  0
 16 44  1  0
 17 18  1  0
 18 19  1  0
 18 33  1  0
 19 20  1  0
 19 32  2  0
 20 21  2  0
 20 45  1  0
 21 22  1  0
 22 23  1  0
 22 32  1  0
 23 24  1  0
 23 31  1  0
 23 46  1  0
 24 25  1  0
 24 47  1  0
 24 48  1  0
 25 26  1  0
 25 30  2  0
 26 27  2  0
 26 49  1  0
 27 28  1  0
 27 50  1  0
 28 29  2  0
 28 51  1  0
 29 30  1  0
 29 52  1  0
 30 31  1  0
 31 53  1  0
 31 54  1  0
 32 55  1  0
 33 56  1  0
 34 35  1  0
 34 36  1  0
 35 57  1  0
 35 58  1  0
M  END
>  <candidate_id>  (1) 
PACERGEN02432

>  <parent_smiles>  (1) 
Cc1c(Cl)c2nnc(C)n2c2sc(Nc3cnn(-c4cnn(C5Cc6ccccc6C5)c4)c3)c(N)c12

>  <ligand_state_id>  (1) 
PACERGEN02432__s00

>  <state_smiles>  (1) 
Cc1c(Cl)c2nnc(C)n2c2sc(Nc3cnn(-c4cnn(C5Cc6ccccc6C5)c4)c3)c(N)c12

>  <s_m_source_file>  (1) 
ph7_3d.sdf

>  <i_m_source_file_index>  (1) 
1

>  <i_lp_mmshare_version>  (1) 
61128

>  <i_f3d_flags>  (1) 
0

>  <s_lp_Force_Field>  (1) 
OPLS_2005

>  <r_lp_Energy>  (1) 
72.144268

>  <b_lp_Chiralities_Consistent>  (1) 
1

>  <s_lp_Variant>  (1) 
PACERGEN02432__s00-1

>  <s_pacer_candidate_id>  (1) 
PACERGEN02432

>  <s_pacer_canonical_smiles>  (1) 
Cc1c(Cl)c2nnc(C)n2c2sc(Nc3cnn(-c4cnn(C5Cc6ccccc6C5)c4)c3)c(N)c12

>  <i_pacer_rerun_final_rank>  (1) 
15

>  <s_pacer_molscrub_state_id>  (1) 
PACERGEN02432__s00

>  <s_pacer_prepared_variant_id>  (1) 
PACERGEN02432__s00__v01

>  <s_i_glide_gridfile>  (1) 
grid

>  <i_i_glide_lignum>  (1) 
19

>  <i_i_glide_rotatable_bonds>  (1) 
4

>  <r_i_docking_score>  (1) 
-10.5977417530992

>  <r_i_glide_ligand_efficiency>  (1) 
-0.294381715363867

>  <r_i_glide_ligand_efficiency_sa>  (1) 
-0.972027006375201

>  <r_i_glide_ligand_efficiency_ln>  (1) 
-2.31214093263219

>  <r_i_glide_gscore>  (1) 
-10.5977417530992

>  <r_i_glide_lipo>  (1) 
-5.49790063451437

>  <r_i_glide_hbond>  (1) 
-0.197675018973138

>  <r_i_glide_metal>  (1) 
-0

>  <r_i_glide_rewards>  (1) 
-1.67827463874616

>  <r_i_glide_evdw>  (1) 
-59.0909042358398

>  <r_i_glide_ecoul>  (1) 
-3.8509247303009

>  <r_i_glide_erotb>  (1) 
0.308292460471598

>  <r_i_glide_esite>  (1) 
0

>  <r_i_glide_emodel>  (1) 
-94.0901410915936

>  <r_i_glide_energy>  (1) 
-62.9418289661407

>  <r_i_glide_einternal>  (1) 
9.66304969787598

>  <i_i_glide_confnum>  (1) 
10

>  <i_i_glide_posenum>  (1) 
114

>  <r_i_glide_eff_state_penalty>  (1) 
0

$$$$
