PACERGEN00123__s00__v01
                    3D
 Schrodinger Suite 2023-1.
 61 67  0  0  1  0            999 V2000
   44.0108   49.6273   65.0367 C   0  0  0  0  0  0
   44.2226   49.1309   63.6140 C   0  0  0  0  0  0
   45.1716   48.0866   63.3765 C   0  0  0  0  0  0
   46.1277   47.3948   64.6456 Cl  0  0  0  0  0  0
   45.3318   47.6079   62.0442 C   0  0  0  0  0  0
   46.1366   46.6449   61.5640 N   0  0  0  0  0  0
   45.8976   46.5636   60.1777 N   0  0  0  0  0  0
   44.9701   47.4826   59.9038 C   0  0  0  0  0  0
   44.6301   48.1041   61.0249 N   0  0  0  0  0  0
   43.7409   49.1350   61.2872 C   0  0  0  0  0  0
   42.8695   49.8659   60.0057 S   0  0  0  0  0  0
   42.1227   51.0123   61.1344 C   0  0  0  0  0  0
   41.2629   52.0326   60.6237 N   0  0  0  0  0  0
   40.1742   52.5321   61.4472 C   0  0  0  0  0  0
   39.2597   52.3634   60.2238 C   0  0  0  0  0  0
   38.0888   51.4603   60.4147 N   0  3  2  0  0  0
   37.1467   51.8517   61.4658 C   0  0  0  0  0  0
   37.2061   50.4381   62.0492 C   0  0  2  0  0  0
   37.7350   50.3811   63.4318 N   0  3  0  0  0  0
   36.7671   50.5503   64.5347 C   0  0  0  0  0  0
   35.8694   49.3105   64.7823 C   0  0  0  0  0  0
   35.6782   49.3237   66.2764 C   0  0  0  0  0  0
   34.7697   48.5592   67.0294 C   0  0  0  0  0  0
   34.7662   48.7157   68.4340 C   0  0  0  0  0  0
   35.6590   49.6180   69.0602 C   0  0  0  0  0  0
   36.5680   50.3734   68.2882 C   0  0  0  0  0  0
   36.5593   50.2042   66.8927 C   0  0  0  0  0  0
   37.4543   50.8725   65.8876 C   0  0  0  0  0  0
   38.2870   50.1318   61.0090 C   0  0  0  0  0  0
   40.4307   51.7145   59.4708 C   0  0  0  0  0  0
   42.5395   50.8378   62.4613 C   0  0  0  0  0  0
   42.1548   51.6218   63.5624 N   0  0  0  0  0  0
   43.4848   49.7284   62.5388 C   0  0  0  0  0  0
   42.9512   49.7765   65.2381 H   0  0  0  0  0  0
   44.5375   50.5693   65.1808 H   0  0  0  0  0  0
   44.3590   48.9273   65.7944 H   0  0  0  0  0  0
   44.5678   47.6833   58.9219 H   0  0  0  0  0  0
   39.9243   51.8961   62.2942 H   0  0  0  0  0  0
   40.3246   53.5697   61.7470 H   0  0  0  0  0  0
   38.9716   53.3236   59.7911 H   0  0  0  0  0  0
   37.5946   51.3573   59.5378 H   0  0  0  0  0  0
   37.5169   52.6322   62.1320 H   0  0  0  0  0  0
   36.1763   52.1156   61.0521 H   0  0  0  0  0  0
   36.2965   49.8554   61.8931 H   0  0  0  0  0  0
   38.1366   49.4545   63.5893 H   0  0  0  0  0  0
   38.4727   51.0597   63.5449 H   0  0  0  0  0  0
   36.1115   51.3934   64.3081 H   0  0  0  0  0  0
   34.9178   49.3729   64.2523 H   0  0  0  0  0  0
   36.3673   48.3798   64.5037 H   0  0  0  0  0  0
   34.0916   47.8689   66.5489 H   0  0  0  0  0  0
   34.0770   48.1420   69.0354 H   0  0  0  0  0  0
   35.6468   49.7311   70.1352 H   0  0  0  0  0  0
   37.2552   51.0592   68.7621 H   0  0  0  0  0  0
   38.4451   50.4199   65.9621 H   0  0  0  0  0  0
   37.5452   51.9427   66.0782 H   0  0  0  0  0  0
   38.0126   49.3330   60.3185 H   0  0  0  0  0  0
   39.2781   49.9525   61.4274 H   0  0  0  0  0  0
   40.7348   52.2557   58.5733 H   0  0  0  0  0  0
   40.3057   50.6469   59.2844 H   0  0  0  0  0  0
   41.9051   52.5781   63.3569 H   0  0  0  0  0  0
   42.6394   51.5241   64.4487 H   0  0  0  0  0  0
  1  2  1  0  0  0
  1 34  1  0  0  0
  1 35  1  0  0  0
  1 36  1  0  0  0
  2  3  2  0  0  0
  2 33  1  0  0  0
  3  4  1  0  0  0
  3  5  1  0  0  0
  5  6  2  0  0  0
  5  9  1  0  0  0
  6  7  1  0  0  0
  7  8  2  0  0  0
  8  9  1  0  0  0
  8 37  1  0  0  0
  9 10  1  0  0  0
 10 11  1  0  0  0
 10 33  2  0  0  0
 11 12  1  0  0  0
 12 13  1  0  0  0
 12 31  2  0  0  0
 13 14  1  0  0  0
 13 30  1  0  0  0
 14 15  1  0  0  0
 14 38  1  0  0  0
 14 39  1  0  0  0
 15 16  1  0  0  0
 15 30  1  0  0  0
 15 40  1  0  0  0
 16 17  1  0  0  0
 16 29  1  0  0  0
 16 41  1  0  0  0
 17 18  1  0  0  0
 17 42  1  0  0  0
 17 43  1  0  0  0
 18 19  1  0  0  0
 18 29  1  0  0  0
 18 44  1  0  0  0
 19 20  1  0  0  0
 19 45  1  0  0  0
 19 46  1  0  0  0
 20 21  1  0  0  0
 20 28  1  0  0  0
 20 47  1  0  0  0
 21 22  1  0  0  0
 21 48  1  0  0  0
 21 49  1  0  0  0
 22 23  2  0  0  0
 22 27  1  0  0  0
 23 24  1  0  0  0
 23 50  1  0  0  0
 24 25  2  0  0  0
 24 51  1  0  0  0
 25 26  1  0  0  0
 25 52  1  0  0  0
 26 27  2  0  0  0
 26 53  1  0  0  0
 27 28  1  0  0  0
 28 54  1  0  0  0
 28 55  1  0  0  0
 29 56  1  0  0  0
 29 57  1  0  0  0
 30 58  1  0  0  0
 30 59  1  0  0  0
 31 32  1  0  0  0
 31 33  1  0  0  0
 32 60  1  0  0  0
 32 61  1  0  0  0
M  CHG  2  16   1  19   1
M  END
> <candidate_id>
PACERGEN00123

> <parent_smiles>
Cc1c(Cl)c2nncn2c2sc(N3CC(N4CC(NC5Cc6ccccc6C5)C4)C3)c(N)c12

> <ligand_state_id>
PACERGEN00123__s00

> <state_smiles>
Cc1c(Cl)c2nncn2c2sc(N3CC([NH+]4CC([NH2+]C5Cc6ccccc6C5)C4)C3)c(N)c12

> <s_m_source_file>
ph7_3d.sdf

> <i_m_source_file_index>
1

> <i_lp_mmshare_version>
61128

> <i_f3d_flags>
0

> <s_lp_Force_Field>
OPLS_2005

> <r_lp_Energy>
100.015023

> <b_lp_Chiralities_Consistent>
1

> <s_lp_Variant>
PACERGEN00123__s00-1

> <s_pacer_candidate_id>
PACERGEN00123

> <s_pacer_canonical_smiles>
Cc1c(Cl)c2nncn2c2sc(N3CC(N4CC(NC5Cc6ccccc6C5)C4)C3)c(N)c12

> <i_pacer_rerun_final_rank>
114

> <s_pacer_molscrub_state_id>
PACERGEN00123__s00

> <s_pacer_prepared_variant_id>
PACERGEN00123__s00__v01

> <s_i_glide_gridfile>
grid

> <i_i_glide_lignum>
142

> <i_i_glide_rotatable_bonds>
4

> <r_i_docking_score>
-10.3932788220934

> <r_i_glide_ligand_efficiency>
-0.314947843093739

> <r_i_glide_ligand_efficiency_sa>
-1.01020601770391

> <r_i_glide_ligand_efficiency_ln>
-2.31141139651587

> <r_i_glide_gscore>
-10.3932788220934

> <r_i_glide_lipo>
-4.6282452430344

> <r_i_glide_hbond>
-0.311609857143829

> <r_i_glide_metal>
-0

> <r_i_glide_rewards>
-1.88326322481183

> <r_i_glide_evdw>
-50.3066673278809

> <r_i_glide_ecoul>
-9.14293003082275

> <r_i_glide_erotb>
0.349286975448303

> <r_i_glide_esite>
-0.0326746015341868

> <r_i_glide_emodel>
-86.8811010965953

> <r_i_glide_energy>
-59.4495973587036

> <r_i_glide_einternal>
14.1009664535522

> <i_i_glide_confnum>
86

> <i_i_glide_posenum>
200

> <r_i_glide_eff_state_penalty>
0

$$$$
