PACERGEN00462__s00__v01
                    3D
 Schrodinger Suite 2023-1.
 64 70  0  0  1  0            999 V2000
   43.8586   49.6463   65.1348 C   0  0  0  0  0  0
   44.1361   49.1814   63.7127 C   0  0  0  0  0  0
   45.1174   48.1654   63.5250 C   0  0  0  0  0  0
   46.0175   47.4938   64.8455 Cl  0  0  0  0  0  0
   45.3706   47.7057   62.2055 C   0  0  0  0  0  0
   46.2452   46.7757   61.8065 N   0  0  0  0  0  0
   46.1295   46.6777   60.4150 N   0  0  0  0  0  0
   45.1981   47.5577   60.0392 C   0  0  0  0  0  0
   44.7989   47.7912   58.6187 C   0  0  0  0  0  0
   44.7285   48.1765   61.1315 N   0  0  0  0  0  0
   43.7847   49.1826   61.3542 C   0  0  0  0  0  0
   42.9366   49.9109   60.0488 S   0  0  0  0  0  0
   42.1215   51.0355   61.1437 C   0  0  0  0  0  0
   41.2662   52.0422   60.5994 N   0  0  0  0  0  0
   40.1108   52.4886   61.3594 C   0  0  0  0  0  0
   39.2834   52.3170   60.0747 C   0  0  0  0  0  0
   38.1388   51.3639   60.1595 N   0  3  2  0  0  0
   37.0957   51.7045   61.1299 C   0  0  0  0  0  0
   37.2456   50.3289   61.7859 C   0  0  2  0  0  0
   37.7853   50.3764   63.1643 N   0  3  0  0  0  0
   36.8329   50.6038   64.2684 C   0  0  0  0  0  0
   35.9217   49.3901   64.5875 C   0  0  0  0  0  0
   35.7991   49.4452   66.0882 C   0  0  0  0  0  0
   34.9303   48.7025   66.9036 C   0  0  0  0  0  0
   35.0015   48.8823   68.3030 C   0  0  0  0  0  0
   35.9381   49.7811   68.8651 C   0  0  0  0  0  0
   36.8132   50.5104   68.0318 C   0  0  0  0  0  0
   36.7155   50.3281   66.6426 C   0  0  0  0  0  0
   37.5668   50.9594   65.5842 C   0  0  0  0  0  0
   38.3395   50.0356   60.7544 C   0  0  0  0  0  0
   40.5246   51.7351   59.3830 C   0  0  0  0  0  0
   42.4883   50.8632   62.4830 C   0  0  0  0  0  0
   42.0473   51.6446   63.5632 N   0  0  0  0  0  0
   43.4477   49.7671   62.5986 C   0  0  0  0  0  0
   42.8251   49.9560   65.2671 H   0  0  0  0  0  0
   44.0154   48.8548   65.8671 H   0  0  0  0  0  0
   44.5213   50.4741   65.3880 H   0  0  0  0  0  0
   45.3512   47.1216   57.9589 H   0  0  0  0  0  0
   45.0242   48.8167   58.3266 H   0  0  0  0  0  0
   43.7363   47.5971   58.4831 H   0  0  0  0  0  0
   39.8388   51.8245   62.1758 H   0  0  0  0  0  0
   40.2047   53.5248   61.6875 H   0  0  0  0  0  0
   38.9872   53.2768   59.6470 H   0  0  0  0  0  0
   37.7268   51.2571   59.2418 H   0  0  0  0  0  0
   37.3411   52.5495   61.7766 H   0  0  0  0  0  0
   36.1366   51.8480   60.6351 H   0  0  0  0  0  0
   36.3726   49.6836   61.6719 H   0  0  0  0  0  0
   38.2427   49.4888   63.3874 H   0  0  0  0  0  0
   38.4942   51.0933   63.2179 H   0  0  0  0  0  0
   36.1892   51.4511   64.0238 H   0  0  0  0  0  0
   34.9481   49.4612   64.1007 H   0  0  0  0  0  0
   36.3851   48.4424   64.3100 H   0  0  0  0  0  0
   34.2248   48.0064   66.4735 H   0  0  0  0  0  0
   34.3402   48.3233   68.9490 H   0  0  0  0  0  0
   35.9910   49.9052   69.9370 H   0  0  0  0  0  0
   37.5411   51.1877   68.4518 H   0  0  0  0  0  0
   38.5364   50.4754   65.6407 H   0  0  0  0  0  0
   37.7058   52.0298   65.7335 H   0  0  0  0  0  0
   38.0697   49.2400   60.0579 H   0  0  0  0  0  0
   39.3292   49.8568   61.1771 H   0  0  0  0  0  0
   40.8680   52.3183   58.5269 H   0  0  0  0  0  0
   40.4477   50.6721   59.1514 H   0  0  0  0  0  0
   41.7758   52.5917   63.3379 H   0  0  0  0  0  0
   42.5364   51.5772   64.4513 H   0  0  0  0  0  0
  1  2  1  0  0  0
  1 35  1  0  0  0
  1 36  1  0  0  0
  1 37  1  0  0  0
  2  3  2  0  0  0
  2 34  1  0  0  0
  3  4  1  0  0  0
  3  5  1  0  0  0
  5  6  2  0  0  0
  5 10  1  0  0  0
  6  7  1  0  0  0
  7  8  2  0  0  0
  8  9  1  0  0  0
  8 10  1  0  0  0
  9 38  1  0  0  0
  9 39  1  0  0  0
  9 40  1  0  0  0
 10 11  1  0  0  0
 11 12  1  0  0  0
 11 34  2  0  0  0
 12 13  1  0  0  0
 13 14  1  0  0  0
 13 32  2  0  0  0
 14 15  1  0  0  0
 14 31  1  0  0  0
 15 16  1  0  0  0
 15 41  1  0  0  0
 15 42  1  0  0  0
 16 17  1  0  0  0
 16 31  1  0  0  0
 16 43  1  0  0  0
 17 18  1  0  0  0
 17 30  1  0  0  0
 17 44  1  0  0  0
 18 19  1  0  0  0
 18 45  1  0  0  0
 18 46  1  0  0  0
 19 20  1  0  0  0
 19 30  1  0  0  0
 19 47  1  0  0  0
 20 21  1  0  0  0
 20 48  1  0  0  0
 20 49  1  0  0  0
 21 22  1  0  0  0
 21 29  1  0  0  0
 21 50  1  0  0  0
 22 23  1  0  0  0
 22 51  1  0  0  0
 22 52  1  0  0  0
 23 24  2  0  0  0
 23 28  1  0  0  0
 24 25  1  0  0  0
 24 53  1  0  0  0
 25 26  2  0  0  0
 25 54  1  0  0  0
 26 27  1  0  0  0
 26 55  1  0  0  0
 27 28  2  0  0  0
 27 56  1  0  0  0
 28 29  1  0  0  0
 29 57  1  0  0  0
 29 58  1  0  0  0
 30 59  1  0  0  0
 30 60  1  0  0  0
 31 61  1  0  0  0
 31 62  1  0  0  0
 32 33  1  0  0  0
 32 34  1  0  0  0
 33 63  1  0  0  0
 33 64  1  0  0  0
M  CHG  2  17   1  20   1
M  END
> <candidate_id>
PACERGEN00462

> <parent_smiles>
Cc1c(Cl)c2nnc(C)n2c2sc(N3CC(N4CC(NC5Cc6ccccc6C5)C4)C3)c(N)c12

> <ligand_state_id>
PACERGEN00462__s00

> <state_smiles>
Cc1c(Cl)c2nnc(C)n2c2sc(N3CC([NH+]4CC([NH2+]C5Cc6ccccc6C5)C4)C3)c(N)c12

> <s_m_source_file>
ph7_3d.sdf

> <i_m_source_file_index>
1

> <i_lp_mmshare_version>
61128

> <i_f3d_flags>
0

> <s_lp_Force_Field>
OPLS_2005

> <r_lp_Energy>
100.998174

> <b_lp_Chiralities_Consistent>
1

> <s_lp_Variant>
PACERGEN00462__s00-1

> <s_pacer_candidate_id>
PACERGEN00462

> <s_pacer_canonical_smiles>
Cc1c(Cl)c2nnc(C)n2c2sc(N3CC(N4CC(NC5Cc6ccccc6C5)C4)C3)c(N)c12

> <i_pacer_rerun_final_rank>
137

> <s_pacer_molscrub_state_id>
PACERGEN00462__s00

> <s_pacer_prepared_variant_id>
PACERGEN00462__s00__v01

> <s_i_glide_gridfile>
grid

> <i_i_glide_lignum>
177

> <i_i_glide_rotatable_bonds>
4

> <r_i_docking_score>
-10.2091140447889

> <r_i_glide_ligand_efficiency>
-0.300268060140849

> <r_i_glide_ligand_efficiency_sa>
-0.972751950035567

> <r_i_glide_ligand_efficiency_ln>
-2.2554796484433

> <r_i_glide_gscore>
-10.2091140447889

> <r_i_glide_lipo>
-4.55504564413293

> <r_i_glide_hbond>
-0.32

> <r_i_glide_metal>
-0

> <r_i_glide_rewards>
-1.74938406286718

> <r_i_glide_evdw>
-51.2508010864258

> <r_i_glide_ecoul>
-8.83443450927734

> <r_i_glide_erotb>
0.331423853196388

> <r_i_glide_esite>
-0.0284029602722575

> <r_i_glide_emodel>
-88.3024074365201

> <r_i_glide_energy>
-60.0852355957031

> <r_i_glide_einternal>
16.279203414917

> <i_i_glide_confnum>
86

> <i_i_glide_posenum>
313

> <r_i_glide_eff_state_penalty>
0

$$$$
